Circuit: ********************************************************************************

WARNING: Node 3 is floating.
WARNING: Node 9 is floating.
WARNING: Node 10 is floating.
WARNING: Node 11 is floating.
WARNING: Node 12 is floating.

Warning: Pd = 0 is less than W.
Warning: Ps = 0 is less than W.
Warning: Pd = 0 is less than W.
Warning: Ps = 0 is less than W.
Direct Newton iteration for .op point succeeded.

Date: Tue Jul 31 00:09:12 2018
Total elapsed time: 0.114 seconds.

tnom = 27
temp = 27
method = modified trap
totiter = 3426
traniter = 3388
tranpoints = 1279
accept = 1215
rejected = 64
matrix size = 23
fillins = 10
solver = Normal
Matrix Compiler1: 3.01 KB object code size  1.4/0.5/[0.2]
Matrix Compiler2: 3.17 KB object code size  0.4/0.5/[0.3]

